Circuit: * C:\Users\rockg\Desktop\For Tesla coil\Simulation\LC Frequency Analysis\LC Frequency Analysis.asc

Number of points reduced from 2147483648 to 65535.
.OP point found by inspection.

Date: Mon May 22 20:47:57 2023
Total elapsed time: 0.072 seconds.

tnom = 27
temp = 27
method = trap
totiter = 0
traniter = 0
tranpoints = 0
accept = 0
rejected = 0
matrix size = 4
fillins = 0
solver = Normal
Avg thread counts: 12.0/0.0/0.0/1.0
Matrix Compiler1:       7 opcodes
Matrix Compiler2:      21 opcodes
