Circuit: * C:\Users\rockg\Desktop\For Tesla coil\Simulation\Diode Voltage Limiting\Diode Voltage Limiting.asc

Limiting rise time of source v1 to 5e-07
Limiting fall time of source v1 to 5e-07
Limiting rise time of source v to 5e-07
Limiting fall time of source v to 5e-07
Direct Newton iteration for .op point succeeded.

Date: Mon May 22 20:38:23 2023
Total elapsed time: 0.490 seconds.

tnom = 27
temp = 27
method = modified trap
totiter = 55264
traniter = 55260
tranpoints = 23538
accept = 18776
rejected = 4762
matrix size = 16
fillins = 10
solver = Normal
Avg thread counts: 1.0/1.0/1.0/1.0
Matrix Compiler1: 1.12 KB object code size  0.2/0.2/[0.2]
Matrix Compiler2: 1.37 KB object code size  0.1/0.2/[0.1]

